test/data/case24.json
{
  "areas": [
    {
      "area": 1,
      "index": 1,
      "refbus": 1
    },
    {
      "area": 2,
      "index": 2,
      "refbus": 3
    },
    {
      "area": 3,
      "index": 3,
      "refbus": 8
    },
    {
      "area": 4,
      "index": 4,
      "refbus": 6
    }
  ],
  "baseMVA": 100.0,
  "branch": [
    {
      "angmax": 7.100016,
      "angmin": -7.100016,
      "br_b": 0.4611,
      "br_r": 0.0026,
      "br_status": 1,
      "br_x": 0.0139,
      "f_bus": 1,
      "index": 1,
      "rate_a": 175.0,
      "rate_b": 193.0,
      "rate_c": 200.0,
      "shift": 0.0,
      "t_bus": 2,
      "tap": 0.0
    },
    {
      "angmax": 7.100016,
      "angmin": -7.100016,
      "br_b": 0.0572,
      "br_r": 0.0546,
      "br_status": 1,
      "br_x": 0.2112,
      "f_bus": 1,
      "index": 2,
      "rate_a": 175.0,
      "rate_b": 208.0,
      "rate_c": 220.0,
      "shift": 0.0,
      "t_bus": 3,
      "tap": 0.0
    },
    {
      "angmax": 7.100016,
      "angmin": -7.100016,
      "br_b": 0.0229,
      "br_r": 0.0218,
      "br_status": 1,
      "br_x": 0.0845,
      "f_bus": 1,
      "index": 3,
      "rate_a": 175.0,
      "rate_b": 208.0,
      "rate_c": 220.0,
      "shift": 0.0,
      "t_bus": 5,
      "tap": 0.0
    },
    {
      "angmax": 7.100016,
      "angmin": -7.100016,
      "br_b": 0.0343,
      "br_r": 0.0328,
      "br_status": 1,
      "br_x": 0.1267,
      "f_bus": 2,
      "index": 4,
      "rate_a": 175.0,
      "rate_b": 208.0,
      "rate_c": 220.0,
      "shift": 0.0,
      "t_bus": 4,
      "tap": 0.0
    },
    {
      "angmax": 7.100016,
      "angmin": -7.100016,
      "br_b": 0.052,
      "br_r": 0.0497,
      "br_status": 1,
      "br_x": 0.192,
      "f_bus": 2,
      "index": 5,
      "rate_a": 175.0,
      "rate_b": 208.0,
      "rate_c": 220.0,
      "shift": 0.0,
      "t_bus": 6,
      "tap": 0.0
    },
    {
      "angmax": 7.100016,
      "angmin": -7.100016,
      "br_b": 0.0322,
      "br_r": 0.0308,
      "br_status": 1,
      "br_x": 0.119,
      "f_bus": 3,
      "index": 6,
      "rate_a": 175.0,
      "rate_b": 208.0,
      "rate_c": 220.0,
      "shift": 0.0,
      "t_bus": 9,
      "tap": 0.0
    },
    {
      "angmax": 7.100016,
      "angmin": -7.100016,
      "br_b": 0.0,
      "br_r": 0.0023,
      "br_status": 1,
      "br_x": 0.0839,
      "f_bus": 3,
      "index": 7,
      "rate_a": 400.0,
      "rate_b": 510.0,
      "rate_c": 600.0,
      "shift": 0.0,
      "t_bus": 24,
      "tap": 1.03
    },
    {
      "angmax": 7.100016,
      "angmin": -7.100016,
      "br_b": 0.0281,
      "br_r": 0.0268,
      "br_status": 1,
      "br_x": 0.1037,
      "f_bus": 4,
      "index": 8,
      "rate_a": 175.0,
      "rate_b": 208.0,
      "rate_c": 220.0,
      "shift": 0.0,
      "t_bus": 9,
      "tap": 0.0
    },
    {
      "angmax": 7.100016,
      "angmin": -7.100016,
      "br_b": 0.0239,
      "br_r": 0.0228,
      "br_status": 1,
      "br_x": 0.0883,
      "f_bus": 5,
      "index": 9,
      "rate_a": 175.0,
      "rate_b": 208.0,
      "rate_c": 220.0,
      "shift": 0.0,
      "t_bus": 10,
      "tap": 0.0
    },
    {
      "angmax": 7.100016,
      "angmin": -7.100016,
      "br_b": 2.459,
      "br_r": 0.0139,
      "br_status": 1,
      "br_x": 0.0605,
      "f_bus": 6,
      "index": 10,
      "rate_a": 175.0,
      "rate_b": 193.0,
      "rate_c": 200.0,
      "shift": 0.0,
      "t_bus": 10,
      "tap": 0.0
    },
    {
      "angmax": 7.100016,
      "angmin": -7.100016,
      "br_b": 0.0166,
      "br_r": 0.0159,
      "br_status": 1,
      "br_x": 0.0614,
      "f_bus": 7,
      "index": 11,
      "rate_a": 175.0,
      "rate_b": 208.0,
      "rate_c": 220.0,
      "shift": 0.0,
      "t_bus": 8,
      "tap": 0.0
    },
    {
      "angmax": 7.100016,
      "angmin": -7.100016,
      "br_b": 0.0447,
      "br_r": 0.0427,
      "br_status": 1,
      "br_x": 0.1651,
      "f_bus": 8,
      "index": 12,
      "rate_a": 175.0,
      "rate_b": 208.0,
      "rate_c": 220.0,
      "shift": 0.0,
      "t_bus": 9,
      "tap": 0.0
    },
    {
      "angmax": 7.100016,
      "angmin": -7.100016,
      "br_b": 0.0447,
      "br_r": 0.0427,
      "br_status": 1,
      "br_x": 0.1651,
      "f_bus": 8,
      "index": 13,
      "rate_a": 175.0,
      "rate_b": 208.0,
      "rate_c": 220.0,
      "shift": 0.0,
      "t_bus": 10,
      "tap": 0.0
    },
    {
      "angmax": 7.100016,
      "angmin": -7.100016,
      "br_b": 0.0,
      "br_r": 0.0023,
      "br_status": 1,
      "br_x": 0.0839,
      "f_bus": 9,
      "index": 14,
      "rate_a": 400.0,
      "rate_b": 510.0,
      "rate_c": 600.0,
      "shift": 0.0,
      "t_bus": 11,
      "tap": 1.03
    },
    {
      "angmax": 7.100016,
      "angmin": -7.100016,
      "br_b": 0.0,
      "br_r": 0.0023,
      "br_status": 1,
      "br_x": 0.0839,
      "f_bus": 9,
      "index": 15,
      "rate_a": 400.0,
      "rate_b": 510.0,
      "rate_c": 600.0,
      "shift": 0.0,
      "t_bus": 12,
      "tap": 1.03
    },
    {
      "angmax": 7.100016,
      "angmin": -7.100016,
      "br_b": 0.0,
      "br_r": 0.0023,
      "br_status": 1,
      "br_x": 0.0839,
      "f_bus": 10,
      "index": 16,
      "rate_a": 400.0,
      "rate_b": 510.0,
      "rate_c": 600.0,
      "shift": 0.0,
      "t_bus": 11,
      "tap": 1.02
    },
    {
      "angmax": 7.100016,
      "angmin": -7.100016,
      "br_b": 0.0,
      "br_r": 0.0023,
      "br_status": 1,
      "br_x": 0.0839,
      "f_bus": 10,
      "index": 17,
      "rate_a": 400.0,
      "rate_b": 510.0,
      "rate_c": 600.0,
      "shift": 0.0,
      "t_bus": 12,
      "tap": 1.02
    },
    {
      "angmax": 7.100016,
      "angmin": -7.100016,
      "br_b": 0.0999,
      "br_r": 0.0061,
      "br_status": 1,
      "br_x": 0.0476,
      "f_bus": 11,
      "index": 18,
      "rate_a": 500.0,
      "rate_b": 600.0,
      "rate_c": 625.0,
      "shift": 0.0,
      "t_bus": 13,
      "tap": 0.0
    },
    {
      "angmax": 7.100016,
      "angmin": -7.100016,
      "br_b": 0.0879,
      "br_r": 0.0054,
      "br_status": 1,
      "br_x": 0.0418,
      "f_bus": 11,
      "index": 19,
      "rate_a": 500.0,
      "rate_b": 600.0,
      "rate_c": 625.0,
      "shift": 0.0,
      "t_bus": 14,
      "tap": 0.0
    },
    {
      "angmax": 7.100016,
      "angmin": -7.100016,
      "br_b": 0.0999,
      "br_r": 0.0061,
      "br_status": 1,
      "br_x": 0.0476,
      "f_bus": 12,
      "index": 20,
      "rate_a": 500.0,
      "rate_b": 600.0,
      "rate_c": 625.0,
      "shift": 0.0,
      "t_bus": 13,
      "tap": 0.0
    },
    {
      "angmax": 7.100016,
      "angmin": -7.100016,
      "br_b": 0.203,
      "br_r": 0.0124,
      "br_status": 1,
      "br_x": 0.0966,
      "f_bus": 12,
      "index": 21,
      "rate_a": 500.0,
      "rate_b": 600.0,
      "rate_c": 625.0,
      "shift": 0.0,
      "t_bus": 23,
      "tap": 0.0
    },
    {
      "angmax": 7.100016,
      "angmin": -7.100016,
      "br_b": 0.1818,
      "br_r": 0.0111,
      "br_status": 1,
      "br_x": 0.0865,
      "f_bus": 13,
      "index": 22,
      "rate_a": 500.0,
      "rate_b": 600.0,
      "rate_c": 625.0,
      "shift": 0.0,
      "t_bus": 23,
      "tap": 0.0
    },
    {
      "angmax": 7.100016,
      "angmin": -7.100016,
      "br_b": 0.0818,
      "br_r": 0.005,
      "br_status": 1,
      "br_x": 0.0389,
      "f_bus": 14,
      "index": 23,
      "rate_a": 500.0,
      "rate_b": 600.0,
      "rate_c": 625.0,
      "shift": 0.0,
      "t_bus": 16,
      "tap": 0.0
    },
    {
      "angmax": 7.100016,
      "angmin": -7.100016,
      "br_b": 0.0364,
      "br_r": 0.0022,
      "br_status": 1,
      "br_x": 0.0173,
      "f_bus": 15,
      "index": 24,
      "rate_a": 500.0,
      "rate_b": 600.0,
      "rate_c": 625.0,
      "shift": 0.0,
      "t_bus": 16,
      "tap": 0.0
    },
    {
      "angmax": 7.100016,
      "angmin": -7.100016,
      "br_b": 0.103,
      "br_r": 0.0063,
      "br_status": 1,
      "br_x": 0.049,
      "f_bus": 15,
      "index": 25,
      "rate_a": 500.0,
      "rate_b": 600.0,
      "rate_c": 625.0,
      "shift": 0.0,
      "t_bus": 21,
      "tap": 0.0
    },
    {
      "angmax": 7.100016,
      "angmin": -7.100016,
      "br_b": 0.103,
      "br_r": 0.0063,
      "br_status": 1,
      "br_x": 0.049,
      "f_bus": 15,
      "index": 26,
      "rate_a": 500.0,
      "rate_b": 600.0,
      "rate_c": 625.0,
      "shift": 0.0,
      "t_bus": 21,
      "tap": 0.0
    },
    {
      "angmax": 7.100016,
      "angmin": -7.100016,
      "br_b": 0.1091,
      "br_r": 0.0067,
      "br_status": 1,
      "br_x": 0.0519,
      "f_bus": 15,
      "index": 27,
      "rate_a": 500.0,
      "rate_b": 600.0,
      "rate_c": 625.0,
      "shift": 0.0,
      "t_bus": 24,
      "tap": 0.0
    },
    {
      "angmax": 7.100016,
      "angmin": -7.100016,
      "br_b": 0.0545,
      "br_r": 0.0033,
      "br_status": 1,
      "br_x": 0.0259,
      "f_bus": 16,
      "index": 28,
      "rate_a": 500.0,
      "rate_b": 600.0,
      "rate_c": 625.0,
      "shift": 0.0,
      "t_bus": 17,
      "tap": 0.0
    },
    {
      "angmax": 7.100016,
      "angmin": -7.100016,
      "br_b": 0.0485,
      "br_r": 0.003,
      "br_status": 1,
      "br_x": 0.0231,
      "f_bus": 16,
      "index": 29,
      "rate_a": 500.0,
      "rate_b": 600.0,
      "rate_c": 625.0,
      "shift": 0.0,
      "t_bus": 19,
      "tap": 0.0
    },
    {
      "angmax": 7.100016,
      "angmin": -7.100016,
      "br_b": 0.0303,
      "br_r": 0.0018,
      "br_status": 1,
      "br_x": 0.0144,
      "f_bus": 17,
      "index": 30,
      "rate_a": 500.0,
      "rate_b": 600.0,
      "rate_c": 625.0,
      "shift": 0.0,
      "t_bus": 18,
      "tap": 0.0
    },
    {
      "angmax": 7.100016,
      "angmin": -7.100016,
      "br_b": 0.2212,
      "br_r": 0.0135,
      "br_status": 1,
      "br_x": 0.1053,
      "f_bus": 17,
      "index": 31,
      "rate_a": 500.0,
      "rate_b": 600.0,
      "rate_c": 625.0,
      "shift": 0.0,
      "t_bus": 22,
      "tap": 0.0
    },
    {
      "angmax": 7.100016,
      "angmin": -7.100016,
      "br_b": 0.0545,
      "br_r": 0.0033,
      "br_status": 1,
      "br_x": 0.0259,
      "f_bus": 18,
      "index": 32,
      "rate_a": 500.0,
      "rate_b": 600.0,
      "rate_c": 625.0,
      "shift": 0.0,
      "t_bus": 21,
      "tap": 0.0
    },
    {
      "angmax": 7.100016,
      "angmin": -7.100016,
      "br_b": 0.0545,
      "br_r": 0.0033,
      "br_status": 1,
      "br_x": 0.0259,
      "f_bus": 18,
      "index": 33,
      "rate_a": 500.0,
      "rate_b": 600.0,
      "rate_c": 625.0,
      "shift": 0.0,
      "t_bus": 21,
      "tap": 0.0
    },
    {
      "angmax": 7.100016,
      "angmin": -7.100016,
      "br_b": 0.0833,
      "br_r": 0.0051,
      "br_status": 1,
      "br_x": 0.0396,
      "f_bus": 19,
      "index": 34,
      "rate_a": 500.0,
      "rate_b": 600.0,
      "rate_c": 625.0,
      "shift": 0.0,
      "t_bus": 20,
      "tap": 0.0
    },
    {
      "angmax": 7.100016,
      "angmin": -7.100016,
      "br_b": 0.0833,
      "br_r": 0.0051,
      "br_status": 1,
      "br_x": 0.0396,
      "f_bus": 19,
      "index": 35,
      "rate_a": 500.0,
      "rate_b": 600.0,
      "rate_c": 625.0,
      "shift": 0.0,
      "t_bus": 20,
      "tap": 0.0
    },
    {
      "angmax": 7.100016,
      "angmin": -7.100016,
      "br_b": 0.0455,
      "br_r": 0.0028,
      "br_status": 1,
      "br_x": 0.0216,
      "f_bus": 20,
      "index": 36,
      "rate_a": 500.0,
      "rate_b": 600.0,
      "rate_c": 625.0,
      "shift": 0.0,
      "t_bus": 23,
      "tap": 0.0
    },
    {
      "angmax": 7.100016,
      "angmin": -7.100016,
      "br_b": 0.0455,
      "br_r": 0.0028,
      "br_status": 1,
      "br_x": 0.0216,
      "f_bus": 20,
      "index": 37,
      "rate_a": 500.0,
      "rate_b": 600.0,
      "rate_c": 625.0,
      "shift": 0.0,
      "t_bus": 23,
      "tap": 0.0
    },
    {
      "angmax": 7.100016,
      "angmin": -7.100016,
      "br_b": 0.1424,
      "br_r": 0.0087,
      "br_status": 1,
      "br_x": 0.0678,
      "f_bus": 21,
      "index": 38,
      "rate_a": 500.0,
      "rate_b": 600.0,
      "rate_c": 625.0,
      "shift": 0.0,
      "t_bus": 22,
      "tap": 0.0
    }
  ],
  "bus": [
    {
      "area": 1,
      "base_kv": 138.0,
      "bs": 0.0,
      "bus_i": 1,
      "bus_type": 2,
      "gs": 0.0,
      "index": 1,
      "pd": 108.0,
      "qd": 22.0,
      "va": -7.74931,
      "vm": 1.03116,
      "vmax": 1.05,
      "vmin": 0.95,
      "zone": 1
    },
    {
      "area": 1,
      "base_kv": 138.0,
      "bs": 0.0,
      "bus_i": 2,
      "bus_type": 2,
      "gs": 0.0,
      "index": 2,
      "pd": 97.0,
      "qd": 20.0,
      "va": -7.72341,
      "vm": 1.02794,
      "vmax": 1.05,
      "vmin": 0.95,
      "zone": 1
    },
    {
      "area": 1,
      "base_kv": 138.0,
      "bs": 0.0,
      "bus_i": 3,
      "bus_type": 1,
      "gs": 0.0,
      "index": 3,
      "pd": 180.0,
      "qd": 37.0,
      "va": -9.95875,
      "vm": 1.01395,
      "vmax": 1.05,
      "vmin": 0.95,
      "zone": 1
    },
    {
      "area": 1,
      "base_kv": 138.0,
      "bs": 0.0,
      "bus_i": 4,
      "bus_type": 1,
      "gs": 0.0,
      "index": 4,
      "pd": 74.0,
      "qd": 15.0,
      "va": -10.81131,
      "vm": 1.00903,
      "vmax": 1.05,
      "vmin": 0.95,
      "zone": 1
    },
    {
      "area": 1,
      "base_kv": 138.0,
      "bs": 0.0,
      "bus_i": 5,
      "bus_type": 1,
      "gs": 0.0,
      "index": 5,
      "pd": 71.0,
      "qd": 14.0,
      "va": -10.74273,
      "vm": 1.02711,
      "vmax": 1.05,
      "vmin": 0.95,
      "zone": 1
    },
    {
      "area": 2,
      "base_kv": 138.0,
      "bs": -100.0,
      "bus_i": 6,
      "bus_type": 1,
      "gs": 0.0,
      "index": 6,
      "pd": 136.0,
      "qd": 28.0,
      "va": -13.28597,
      "vm": 1.0276,
      "vmax": 1.05,
      "vmin": 0.95,
      "zone": 1
    },
    {
      "area": 2,
      "base_kv": 138.0,
      "bs": 0.0,
      "bus_i": 7,
      "bus_type": 2,
      "gs": 0.0,
      "index": 7,
      "pd": 125.0,
      "qd": 25.0,
      "va": -3.59164,
      "vm": 1.02956,
      "vmax": 1.05,
      "vmin": 0.95,
      "zone": 1
    },
    {
      "area": 2,
      "base_kv": 138.0,
      "bs": 0.0,
      "bus_i": 8,
      "bus_type": 1,
      "gs": 0.0,
      "index": 8,
      "pd": 171.0,
      "qd": 35.0,
      "va": -9.50027,
      "vm": 1.00427,
      "vmax": 1.05,
      "vmin": 0.95,
      "zone": 1
    },
    {
      "area": 1,
      "base_kv": 138.0,
      "bs": 0.0,
      "bus_i": 9,
      "bus_type": 1,
      "gs": 0.0,
      "index": 9,
      "pd": 175.0,
      "qd": 36.0,
      "va": -9.27195,
      "vm": 1.02698,
      "vmax": 1.05,
      "vmin": 0.95,
      "zone": 1
    },
    {
      "area": 2,
      "base_kv": 138.0,
      "bs": 0.0,
      "bus_i": 10,
      "bus_type": 1,
      "gs": 0.0,
      "index": 10,
      "pd": 195.0,
      "qd": 40.0,
      "va": -10.62235,
      "vm": 1.05,
      "vmax": 1.05,
      "vmin": 0.95,
      "zone": 1
    },
    {
      "area": 3,
      "base_kv": 230.0,
      "bs": 0.0,
      "bus_i": 11,
      "bus_type": 1,
      "gs": 0.0,
      "index": 11,
      "pd": 0.0,
      "qd": 0.0,
      "va": -4.64818,
      "vm": 1.03273,
      "vmax": 1.05,
      "vmin": 0.95,
      "zone": 1
    },
    {
      "area": 3,
      "base_kv": 230.0,
      "bs": 0.0,
      "bus_i": 12,
      "bus_type": 1,
      "gs": 0.0,
      "index": 12,
      "pd": 0.0,
      "qd": 0.0,
      "va": -3.52232,
      "vm": 1.02695,
      "vmax": 1.05,
      "vmin": 0.95,
      "zone": 1
    },
    {
      "area": 3,
      "base_kv": 230.0,
      "bs": 0.0,
      "bus_i": 13,
      "bus_type": 3,
      "gs": 0.0,
      "index": 13,
      "pd": 265.0,
      "qd": 54.0,
      "va": 0.0,
      "vm": 1.05,
      "vmax": 1.05,
      "vmin": 0.95,
      "zone": 1
    },
    {
      "area": 3,
      "base_kv": 230.0,
      "bs": 0.0,
      "bus_i": 14,
      "bus_type": 2,
      "gs": 0.0,
      "index": 14,
      "pd": 194.0,
      "qd": 39.0,
      "va": -3.71689,
      "vm": 1.05,
      "vmax": 1.05,
      "vmin": 0.95,
      "zone": 1
    },
    {
      "area": 4,
      "base_kv": 230.0,
      "bs": 0.0,
      "bus_i": 15,
      "bus_type": 2,
      "gs": 0.0,
      "index": 15,
      "pd": 317.0,
      "qd": 64.0,
      "va": 1.17525,
      "vm": 1.04479,
      "vmax": 1.05,
      "vmin": 0.95,
      "zone": 1
    },
    {
      "area": 4,
      "base_kv": 230.0,
      "bs": 0.0,
      "bus_i": 16,
      "bus_type": 2,
      "gs": 0.0,
      "index": 16,
      "pd": 100.0,
      "qd": 20.0,
      "va": 1.27626,
      "vm": 1.04951,
      "vmax": 1.05,
      "vmin": 0.95,
      "zone": 1
    },
    {
      "area": 4,
      "base_kv": 230.0,
      "bs": 0.0,
      "bus_i": 17,
      "bus_type": 1,
      "gs": 0.0,
      "index": 17,
      "pd": 0.0,
      "qd": 0.0,
      "va": 4.77096,
      "vm": 1.04984,
      "vmax": 1.05,
      "vmin": 0.95,
      "zone": 1
    },
    {
      "area": 4,
      "base_kv": 230.0,
      "bs": 0.0,
      "bus_i": 18,
      "bus_type": 2,
      "gs": 0.0,
      "index": 18,
      "pd": 333.0,
      "qd": 68.0,
      "va": 5.75937,
      "vm": 1.05,
      "vmax": 1.05,
      "vmin": 0.95,
      "zone": 1
    },
    {
      "area": 3,
      "base_kv": 230.0,
      "bs": 0.0,
      "bus_i": 19,
      "bus_type": 1,
      "gs": 0.0,
      "index": 19,
      "pd": 181.0,
      "qd": 37.0,
      "va": 0.70319,
      "vm": 1.04185,
      "vmax": 1.05,
      "vmin": 0.95,
      "zone": 1
    },
    {
      "area": 3,
      "base_kv": 230.0,
      "bs": 0.0,
      "bus_i": 20,
      "bus_type": 1,
      "gs": 0.0,
      "index": 20,
      "pd": 128.0,
      "qd": 26.0,
      "va": 2.0619,
      "vm": 1.04489,
      "vmax": 1.05,
      "vmin": 0.95,
      "zone": 1
    },
    {
      "area": 4,
      "base_kv": 230.0,
      "bs": 0.0,
      "bus_i": 21,
      "bus_type": 2,
      "gs": 0.0,
      "index": 21,
      "pd": 0.0,
      "qd": 0.0,
      "va": 6.19253,
      "vm": 1.05,
      "vmax": 1.05,
      "vmin": 0.95,
      "zone": 1
    },
    {
      "area": 4,
      "base_kv": 230.0,
      "bs": 0.0,
      "bus_i": 22,
      "bus_type": 2,
      "gs": 0.0,
      "index": 22,
      "pd": 0.0,
      "qd": 0.0,
      "va": 11.871,
      "vm": 1.05,
      "vmax": 1.05,
      "vmin": 0.95,
      "zone": 1
    },
    {
      "area": 3,
      "base_kv": 230.0,
      "bs": 0.0,
      "bus_i": 23,
      "bus_type": 2,
      "gs": 0.0,
      "index": 23,
      "pd": 0.0,
      "qd": 0.0,
      "va": 3.51051,
      "vm": 1.05,
      "vmax": 1.05,
      "vmin": 0.95,
      "zone": 1
    },
    {
      "area": 4,
      "base_kv": 230.0,
      "bs": 0.0,
      "bus_i": 24,
      "bus_type": 1,
      "gs": 0.0,
      "index": 24,
      "pd": 0.0,
      "qd": 0.0,
      "va": -2.85872,
      "vm": 1.01424,
      "vmax": 1.05,
      "vmin": 0.95,
      "zone": 1
    }
  ],
  "dcline": [],
  "gen": [
    {
      "apf": 0.0,
      "gen_bus": 1,
      "gen_status": 1,
      "index": 1,
      "mbase": 100.0,
      "pc1": 0.0,
      "pc2": 0.0,
      "pg": 20.0,
      "pmax": 20.0,
      "pmin": 16.0,
      "qc1max": 0.0,
      "qc1min": 0.0,
      "qc2max": 0.0,
      "qc2min": 0.0,
      "qg": 4.934,
      "qmax": 10.0,
      "qmin": 0.0,
      "ramp_30": 0.0,
      "ramp_agc": 0.0,
      "ramp_q": 0.0,
      "vg": 1.03116
    },
    {
      "apf": 0.0,
      "gen_bus": 1,
      "gen_status": 1,
      "index": 2,
      "mbase": 100.0,
      "pc1": 0.0,
      "pc2": 0.0,
      "pg": 20.0,
      "pmax": 20.0,
      "pmin": 16.0,
      "qc1max": 0.0,
      "qc1min": 0.0,
      "qc2max": 0.0,
      "qc2min": 0.0,
      "qg": 4.934,
      "qmax": 10.0,
      "qmin": 0.0,
      "ramp_30": 0.0,
      "ramp_agc": 0.0,
      "ramp_q": 0.0,
      "vg": 1.03116
    },
    {
      "apf": 0.0,
      "gen_bus": 1,
      "gen_status": 1,
      "index": 3,
      "mbase": 100.0,
      "pc1": 0.0,
      "pc2": 0.0,
      "pg": 76.0,
      "pmax": 76.0,
      "pmin": 15.2,
      "qc1max": 0.0,
      "qc1min": 0.0,
      "qc2max": 0.0,
      "qc2min": 0.0,
      "qg": 0.571,
      "qmax": 30.0,
      "qmin": -25.0,
      "ramp_30": 0.0,
      "ramp_agc": 0.0,
      "ramp_q": -25.0,
      "vg": 1.03116
    },
    {
      "apf": 0.0,
      "gen_bus": 1,
      "gen_status": 1,
      "index": 4,
      "mbase": 100.0,
      "pc1": 0.0,
      "pc2": 0.0,
      "pg": 76.0,
      "pmax": 76.0,
      "pmin": 15.2,
      "qc1max": 0.0,
      "qc1min": 0.0,
      "qc2max": 0.0,
      "qc2min": 0.0,
      "qg": 0.571,
      "qmax": 30.0,
      "qmin": -25.0,
      "ramp_30": 0.0,
      "ramp_agc": 0.0,
      "ramp_q": -25.0,
      "vg": 1.03116
    },
    {
      "apf": 0.0,
      "gen_bus": 2,
      "gen_status": 1,
      "index": 5,
      "mbase": 100.0,
      "pc1": 0.0,
      "pc2": 0.0,
      "pg": 20.0,
      "pmax": 20.0,
      "pmin": 16.0,
      "qc1max": 0.0,
      "qc1min": 0.0,
      "qc2max": 0.0,
      "qc2min": 0.0,
      "qg": 2.222,
      "qmax": 10.0,
      "qmin": 0.0,
      "ramp_30": 0.0,
      "ramp_agc": 0.0,
      "ramp_q": 0.0,
      "vg": 1.02794
    },
    {
      "apf": 0.0,
      "gen_bus": 2,
      "gen_status": 1,
      "index": 6,
      "mbase": 100.0,
      "pc1": 0.0,
      "pc2": 0.0,
      "pg": 20.0,
      "pmax": 20.0,
      "pmin": 16.0,
      "qc1max": 0.0,
      "qc1min": 0.0,
      "qc2max": 0.0,
      "qc2min": 0.0,
      "qg": 2.222,
      "qmax": 10.0,
      "qmin": 0.0,
      "ramp_30": 0.0,
      "ramp_agc": 0.0,
      "ramp_q": 0.0,
      "vg": 1.02794
    },
    {
      "apf": 0.0,
      "gen_bus": 2,
      "gen_status": 1,
      "index": 7,
      "mbase": 100.0,
      "pc1": 0.0,
      "pc2": 0.0,
      "pg": 76.0,
      "pmax": 76.0,
      "pmin": 15.2,
      "qc1max": 0.0,
      "qc1min": 0.0,
      "qc2max": 0.0,
      "qc2min": 0.0,
      "qg": -21.307,
      "qmax": 30.0,
      "qmin": -25.0,
      "ramp_30": 0.0,
      "ramp_agc": 0.0,
      "ramp_q": -25.0,
      "vg": 1.02794
    },
    {
      "apf": 0.0,
      "gen_bus": 2,
      "gen_status": 1,
      "index": 8,
      "mbase": 100.0,
      "pc1": 0.0,
      "pc2": 0.0,
      "pg": 76.0,
      "pmax": 76.0,
      "pmin": 15.2,
      "qc1max": 0.0,
      "qc1min": 0.0,
      "qc2max": 0.0,
      "qc2min": 0.0,
      "qg": -21.307,
      "qmax": 30.0,
      "qmin": -25.0,
      "ramp_30": 0.0,
      "ramp_agc": 0.0,
      "ramp_q": -25.0,
      "vg": 1.02794
    },
    {
      "apf": 0.0,
      "gen_bus": 7,
      "gen_status": 1,
      "index": 9,
      "mbase": 100.0,
      "pc1": 0.0,
      "pc2": 0.0,
      "pg": 99.974,
      "pmax": 100.0,
      "pmin": 25.0,
      "qc1max": 0.0,
      "qc1min": 0.0,
      "qc2max": 0.0,
      "qc2min": 0.0,
      "qg": 10.062,
      "qmax": 60.0,
      "qmin": 0.0,
      "ramp_30": 0.0,
      "ramp_agc": 0.0,
      "ramp_q": 0.0,
      "vg": 1.02956
    },
    {
      "apf": 0.0,
      "gen_bus": 7,
      "gen_status": 1,
      "index": 10,
      "mbase": 100.0,
      "pc1": 0.0,
      "pc2": 0.0,
      "pg": 99.974,
      "pmax": 100.0,
      "pmin": 25.0,
      "qc1max": 0.0,
      "qc1min": 0.0,
      "qc2max": 0.0,
      "qc2min": 0.0,
      "qg": 10.062,
      "qmax": 60.0,
      "qmin": 0.0,
      "ramp_30": 0.0,
      "ramp_agc": 0.0,
      "ramp_q": 0.0,
      "vg": 1.02956
    },
    {
      "apf": 0.0,
      "gen_bus": 7,
      "gen_status": 1,
      "index": 11,
      "mbase": 100.0,
      "pc1": 0.0,
      "pc2": 0.0,
      "pg": 99.974,
      "pmax": 100.0,
      "pmin": 25.0,
      "qc1max": 0.0,
      "qc1min": 0.0,
      "qc2max": 0.0,
      "qc2min": 0.0,
      "qg": 10.062,
      "qmax": 60.0,
      "qmin": 0.0,
      "ramp_30": 0.0,
      "ramp_agc": 0.0,
      "ramp_q": 0.0,
      "vg": 1.02956
    },
    {
      "apf": 0.0,
      "gen_bus": 13,
      "gen_status": 1,
      "index": 12,
      "mbase": 100.0,
      "pc1": 0.0,
      "pc2": 0.0,
      "pg": 173.258,
      "pmax": 197.0,
      "pmin": 69.0,
      "qc1max": 0.0,
      "qc1min": 0.0,
      "qc2max": 0.0,
      "qc2min": 0.0,
      "qg": 34.475,
      "qmax": 80.0,
      "qmin": 0.0,
      "ramp_30": 0.0,
      "ramp_agc": 0.0,
      "ramp_q": 0.0,
      "vg": 1.05
    },
    {
      "apf": 0.0,
      "gen_bus": 13,
      "gen_status": 1,
      "index": 13,
      "mbase": 100.0,
      "pc1": 0.0,
      "pc2": 0.0,
      "pg": 173.258,
      "pmax": 197.0,
      "pmin": 69.0,
      "qc1max": 0.0,
      "qc1min": 0.0,
      "qc2max": 0.0,
      "qc2min": 0.0,
      "qg": 34.475,
      "qmax": 80.0,
      "qmin": 0.0,
      "ramp_30": 0.0,
      "ramp_agc": 0.0,
      "ramp_q": 0.0,
      "vg": 1.05
    },
    {
      "apf": 0.0,
      "gen_bus": 13,
      "gen_status": 1,
      "index": 14,
      "mbase": 100.0,
      "pc1": 0.0,
      "pc2": 0.0,
      "pg": 173.258,
      "pmax": 197.0,
      "pmin": 69.0,
      "qc1max": 0.0,
      "qc1min": 0.0,
      "qc2max": 0.0,
      "qc2min": 0.0,
      "qg": 34.475,
      "qmax": 80.0,
      "qmin": 0.0,
      "ramp_30": 0.0,
      "ramp_agc": 0.0,
      "ramp_q": 0.0,
      "vg": 1.05
    },
    {
      "apf": 0.0,
      "gen_bus": 14,
      "gen_status": 1,
      "index": 15,
      "mbase": 100.0,
      "pc1": 0.0,
      "pc2": 0.0,
      "pg": 0.0,
      "pmax": 0.0,
      "pmin": 0.0,
      "qc1max": 0.0,
      "qc1min": 0.0,
      "qc2max": 0.0,
      "qc2min": 0.0,
      "qg": 110.354,
      "qmax": 200.0,
      "qmin": -50.0,
      "ramp_30": 0.0,
      "ramp_agc": 0.0,
      "ramp_q": -50.0,
      "vg": 1.05
    },
    {
      "apf": 0.0,
      "gen_bus": 15,
      "gen_status": 1,
      "index": 16,
      "mbase": 100.0,
      "pc1": 0.0,
      "pc2": 0.0,
      "pg": 2.4,
      "pmax": 12.0,
      "pmin": 2.4,
      "qc1max": 0.0,
      "qc1min": 0.0,
      "qc2max": 0.0,
      "qc2min": 0.0,
      "qg": 6.0,
      "qmax": 6.0,
      "qmin": 0.0,
      "ramp_30": 0.0,
      "ramp_agc": 0.0,
      "ramp_q": 0.0,
      "vg": 1.04479
    },
    {
      "apf": 0.0,
      "gen_bus": 15,
      "gen_status": 1,
      "index": 17,
      "mbase": 100.0,
      "pc1": 0.0,
      "pc2": 0.0,
      "pg": 2.4,
      "pmax": 12.0,
      "pmin": 2.4,
      "qc1max": 0.0,
      "qc1min": 0.0,
      "qc2max": 0.0,
      "qc2min": 0.0,
      "qg": 6.0,
      "qmax": 6.0,
      "qmin": 0.0,
      "ramp_30": 0.0,
      "ramp_agc": 0.0,
      "ramp_q": 0.0,
      "vg": 1.04479
    },
    {
      "apf": 0.0,
      "gen_bus": 15,
      "gen_status": 1,
      "index": 18,
      "mbase": 100.0,
      "pc1": 0.0,
      "pc2": 0.0,
      "pg": 2.4,
      "pmax": 12.0,
      "pmin": 2.4,
      "qc1max": 0.0,
      "qc1min": 0.0,
      "qc2max": 0.0,
      "qc2min": 0.0,
      "qg": 6.0,
      "qmax": 6.0,
      "qmin": 0.0,
      "ramp_30": 0.0,
      "ramp_agc": 0.0,
      "ramp_q": 0.0,
      "vg": 1.04479
    },
    {
      "apf": 0.0,
      "gen_bus": 15,
      "gen_status": 1,
      "index": 19,
      "mbase": 100.0,
      "pc1": 0.0,
      "pc2": 0.0,
      "pg": 2.4,
      "pmax": 12.0,
      "pmin": 2.4,
      "qc1max": 0.0,
      "qc1min": 0.0,
      "qc2max": 0.0,
      "qc2min": 0.0,
      "qg": 6.0,
      "qmax": 6.0,
      "qmin": 0.0,
      "ramp_30": 0.0,
      "ramp_agc": 0.0,
      "ramp_q": 0.0,
      "vg": 1.04479
    },
    {
      "apf": 0.0,
      "gen_bus": 15,
      "gen_status": 1,
      "index": 20,
      "mbase": 100.0,
      "pc1": 0.0,
      "pc2": 0.0,
      "pg": 2.4,
      "pmax": 12.0,
      "pmin": 2.4,
      "qc1max": 0.0,
      "qc1min": 0.0,
      "qc2max": 0.0,
      "qc2min": 0.0,
      "qg": 6.0,
      "qmax": 6.0,
      "qmin": 0.0,
      "ramp_30": 0.0,
      "ramp_agc": 0.0,
      "ramp_q": 0.0,
      "vg": 1.04479
    },
    {
      "apf": 0.0,
      "gen_bus": 15,
      "gen_status": 1,
      "index": 21,
      "mbase": 100.0,
      "pc1": 0.0,
      "pc2": 0.0,
      "pg": 54.3,
      "pmax": 155.0,
      "pmin": 54.3,
      "qc1max": 0.0,
      "qc1min": 0.0,
      "qc2max": 0.0,
      "qc2min": 0.0,
      "qg": 80.0,
      "qmax": 80.0,
      "qmin": -50.0,
      "ramp_30": 0.0,
      "ramp_agc": 0.0,
      "ramp_q": -50.0,
      "vg": 1.04479
    },
    {
      "apf": 0.0,
      "gen_bus": 16,
      "gen_status": 1,
      "index": 22,
      "mbase": 100.0,
      "pc1": 0.0,
      "pc2": 0.0,
      "pg": 155.0,
      "pmax": 155.0,
      "pmin": 54.3,
      "qc1max": 0.0,
      "qc1min": 0.0,
      "qc2max": 0.0,
      "qc2min": 0.0,
      "qg": 80.0,
      "qmax": 80.0,
      "qmin": -50.0,
      "ramp_30": 0.0,
      "ramp_agc": 0.0,
      "ramp_q": -50.0,
      "vg": 1.04951
    },
    {
      "apf": 0.0,
      "gen_bus": 18,
      "gen_status": 1,
      "index": 23,
      "mbase": 100.0,
      "pc1": 0.0,
      "pc2": 0.0,
      "pg": 400.0,
      "pmax": 400.0,
      "pmin": 100.0,
      "qc1max": 0.0,
      "qc1min": 0.0,
      "qc2max": 0.0,
      "qc2min": 0.0,
      "qg": 54.665,
      "qmax": 200.0,
      "qmin": -50.0,
      "ramp_30": 0.0,
      "ramp_agc": 0.0,
      "ramp_q": -50.0,
      "vg": 1.05
    },
    {
      "apf": 0.0,
      "gen_bus": 21,
      "gen_status": 1,
      "index": 24,
      "mbase": 100.0,
      "pc1": 0.0,
      "pc2": 0.0,
      "pg": 296.31,
      "pmax": 400.0,
      "pmin": 100.0,
      "qc1max": 0.0,
      "qc1min": 0.0,
      "qc2max": 0.0,
      "qc2min": 0.0,
      "qg": -15.579,
      "qmax": 200.0,
      "qmin": -50.0,
      "ramp_30": 0.0,
      "ramp_agc": 0.0,
      "ramp_q": -50.0,
      "vg": 1.05
    },
    {
      "apf": 0.0,
      "gen_bus": 22,
      "gen_status": 1,
      "index": 25,
      "mbase": 100.0,
      "pc1": 0.0,
      "pc2": 0.0,
      "pg": 47.938,
      "pmax": 50.0,
      "pmin": 10.0,
      "qc1max": 0.0,
      "qc1min": 0.0,
      "qc2max": 0.0,
      "qc2min": 0.0,
      "qg": -6.795,
      "qmax": 16.0,
      "qmin": -10.0,
      "ramp_30": 0.0,
      "ramp_agc": 0.0,
      "ramp_q": -10.0,
      "vg": 1.05
    },
    {
      "apf": 0.0,
      "gen_bus": 22,
      "gen_status": 1,
      "index": 26,
      "mbase": 100.0,
      "pc1": 0.0,
      "pc2": 0.0,
      "pg": 47.938,
      "pmax": 50.0,
      "pmin": 10.0,
      "qc1max": 0.0,
      "qc1min": 0.0,
      "qc2max": 0.0,
      "qc2min": 0.0,
      "qg": -6.795,
      "qmax": 16.0,
      "qmin": -10.0,
      "ramp_30": 0.0,
      "ramp_agc": 0.0,
      "ramp_q": -10.0,
      "vg": 1.05
    },
    {
      "apf": 0.0,
      "gen_bus": 22,
      "gen_status": 1,
      "index": 27,
      "mbase": 100.0,
      "pc1": 0.0,
      "pc2": 0.0,
      "pg": 47.938,
      "pmax": 50.0,
      "pmin": 10.0,
      "qc1max": 0.0,
      "qc1min": 0.0,
      "qc2max": 0.0,
      "qc2min": 0.0,
      "qg": -6.795,
      "qmax": 16.0,
      "qmin": -10.0,
      "ramp_30": 0.0,
      "ramp_agc": 0.0,
      "ramp_q": -10.0,
      "vg": 1.05
    },
    {
      "apf": 0.0,
      "gen_bus": 22,
      "gen_status": 1,
      "index": 28,
      "mbase": 100.0,
      "pc1": 0.0,
      "pc2": 0.0,
      "pg": 47.938,
      "pmax": 50.0,
      "pmin": 10.0,
      "qc1max": 0.0,
      "qc1min": 0.0,
      "qc2max": 0.0,
      "qc2min": 0.0,
      "qg": -6.795,
      "qmax": 16.0,
      "qmin": -10.0,
      "ramp_30": 0.0,
      "ramp_agc": 0.0,
      "ramp_q": -10.0,
      "vg": 1.05
    },
    {
      "apf": 0.0,
      "gen_bus": 22,
      "gen_status": 1,
      "index": 29,
      "mbase": 100.0,
      "pc1": 0.0,
      "pc2": 0.0,
      "pg": 47.938,
      "pmax": 50.0,
      "pmin": 10.0,
      "qc1max": 0.0,
      "qc1min": 0.0,
      "qc2max": 0.0,
      "qc2min": 0.0,
      "qg": -6.795,
      "qmax": 16.0,
      "qmin": -10.0,
      "ramp_30": 0.0,
      "ramp_agc": 0.0,
      "ramp_q": -10.0,
      "vg": 1.05
    },
    {
      "apf": 0.0,
      "gen_bus": 22,
      "gen_status": 1,
      "index": 30,
      "mbase": 100.0,
      "pc1": 0.0,
      "pc2": 0.0,
      "pg": 47.938,
      "pmax": 50.0,
      "pmin": 10.0,
      "qc1max": 0.0,
      "qc1min": 0.0,
      "qc2max": 0.0,
      "qc2min": 0.0,
      "qg": -6.795,
      "qmax": 16.0,
      "qmin": -10.0,
      "ramp_30": 0.0,
      "ramp_agc": 0.0,
      "ramp_q": -10.0,
      "vg": 1.05
    },
    {
      "apf": 0.0,
      "gen_bus": 23,
      "gen_status": 1,
      "index": 31,
      "mbase": 100.0,
      "pc1": 0.0,
      "pc2": 0.0,
      "pg": 113.399,
      "pmax": 155.0,
      "pmin": 54.3,
      "qc1max": 0.0,
      "qc1min": 0.0,
      "qc2max": 0.0,
      "qc2min": 0.0,
      "qg": -9.984,
      "qmax": 80.0,
      "qmin": -50.0,
      "ramp_30": 0.0,
      "ramp_agc": 0.0,
      "ramp_q": -50.0,
      "vg": 1.05
    },
    {
      "apf": 0.0,
      "gen_bus": 23,
      "gen_status": 1,
      "index": 32,
      "mbase": 100.0,
      "pc1": 0.0,
      "pc2": 0.0,
      "pg": 113.399,
      "pmax": 155.0,
      "pmin": 54.3,
      "qc1max": 0.0,
      "qc1min": 0.0,
      "qc2max": 0.0,
      "qc2min": 0.0,
      "qg": -9.984,
      "qmax": 80.0,
      "qmin": -50.0,
      "ramp_30": 0.0,
      "ramp_agc": 0.0,
      "ramp_q": -50.0,
      "vg": 1.05
    },
    {
      "apf": 0.0,
      "gen_bus": 23,
      "gen_status": 1,
      "index": 33,
      "mbase": 100.0,
      "pc1": 0.0,
      "pc2": 0.0,
      "pg": 248.289,
      "pmax": 350.0,
      "pmin": 140.0,
      "qc1max": 0.0,
      "qc1min": 0.0,
      "qc2max": 0.0,
      "qc2min": 0.0,
      "qg": 21.208,
      "qmax": 150.0,
      "qmin": -25.0,
      "ramp_30": 0.0,
      "ramp_agc": 0.0,
      "ramp_q": -25.0,
      "vg": 1.05
    }
  ],
  "gencost": [
    {
      "cost": [
        0.0,
        130.0,
        400.6849
      ],
      "index": 1,
      "model": 2,
      "ncost": 3,
      "shutdown": 0.0,
      "startup": 1500.0
    },
    {
      "cost": [
        0.0,
        130.0,
        400.6849
      ],
      "index": 2,
      "model": 2,
      "ncost": 3,
      "shutdown": 0.0,
      "startup": 1500.0
    },
    {
      "cost": [
        0.014142,
        16.0811,
        212.3076
      ],
      "index": 3,
      "model": 2,
      "ncost": 3,
      "shutdown": 0.0,
      "startup": 1500.0
    },
    {
      "cost": [
        0.014142,
        16.0811,
        212.3076
      ],
      "index": 4,
      "model": 2,
      "ncost": 3,
      "shutdown": 0.0,
      "startup": 1500.0
    },
    {
      "cost": [
        0.0,
        130.0,
        400.6849
      ],
      "index": 5,
      "model": 2,
      "ncost": 3,
      "shutdown": 0.0,
      "startup": 1500.0
    },
    {
      "cost": [
        0.0,
        130.0,
        400.6849
      ],
      "index": 6,
      "model": 2,
      "ncost": 3,
      "shutdown": 0.0,
      "startup": 1500.0
    },
    {
      "cost": [
        0.014142,
        16.0811,
        212.3076
      ],
      "index": 7,
      "model": 2,
      "ncost": 3,
      "shutdown": 0.0,
      "startup": 1500.0
    },
    {
      "cost": [
        0.014142,
        16.0811,
        212.3076
      ],
      "index": 8,
      "model": 2,
      "ncost": 3,
      "shutdown": 0.0,
      "startup": 1500.0
    },
    {
      "cost": [
        0.052672,
        43.6615,
        781.521
      ],
      "index": 9,
      "model": 2,
      "ncost": 3,
      "shutdown": 0.0,
      "startup": 1500.0
    },
    {
      "cost": [
        0.052672,
        43.6615,
        781.521
      ],
      "index": 10,
      "model": 2,
      "ncost": 3,
      "shutdown": 0.0,
      "startup": 1500.0
    },
    {
      "cost": [
        0.052672,
        43.6615,
        781.521
      ],
      "index": 11,
      "model": 2,
      "ncost": 3,
      "shutdown": 0.0,
      "startup": 1500.0
    },
    {
      "cost": [
        0.00717,
        48.5804,
        832.7575
      ],
      "index": 12,
      "model": 2,
      "ncost": 3,
      "shutdown": 0.0,
      "startup": 1500.0
    },
    {
      "cost": [
        0.00717,
        48.5804,
        832.7575
      ],
      "index": 13,
      "model": 2,
      "ncost": 3,
      "shutdown": 0.0,
      "startup": 1500.0
    },
    {
      "cost": [
        0.00717,
        48.5804,
        832.7575
      ],
      "index": 14,
      "model": 2,
      "ncost": 3,
      "shutdown": 0.0,
      "startup": 1500.0
    },
    {
      "cost": [
        0.0,
        0.0,
        0.0
      ],
      "index": 15,
      "model": 2,
      "ncost": 3,
      "shutdown": 0.0,
      "startup": 1500.0
    },
    {
      "cost": [
        0.328412,
        56.564,
        86.3852
      ],
      "index": 16,
      "model": 2,
      "ncost": 3,
      "shutdown": 0.0,
      "startup": 1500.0
    },
    {
      "cost": [
        0.328412,
        56.564,
        86.3852
      ],
      "index": 17,
      "model": 2,
      "ncost": 3,
      "shutdown": 0.0,
      "startup": 1500.0
    },
    {
      "cost": [
        0.328412,
        56.564,
        86.3852
      ],
      "index": 18,
      "model": 2,
      "ncost": 3,
      "shutdown": 0.0,
      "startup": 1500.0
    },
    {
      "cost": [
        0.328412,
        56.564,
        86.3852
      ],
      "index": 19,
      "model": 2,
      "ncost": 3,
      "shutdown": 0.0,
      "startup": 1500.0
    },
    {
      "cost": [
        0.328412,
        56.564,
        86.3852
      ],
      "index": 20,
      "model": 2,
      "ncost": 3,
      "shutdown": 0.0,
      "startup": 1500.0
    },
    {
      "cost": [
        0.008342,
        12.3883,
        382.2391
      ],
      "index": 21,
      "model": 2,
      "ncost": 3,
      "shutdown": 0.0,
      "startup": 1500.0
    },
    {
      "cost": [
        0.008342,
        12.3883,
        382.2391
      ],
      "index": 22,
      "model": 2,
      "ncost": 3,
      "shutdown": 0.0,
      "startup": 1500.0
    },
    {
      "cost": [
        0.000213,
        4.4231,
        395.3749
      ],
      "index": 23,
      "model": 2,
      "ncost": 3,
      "shutdown": 0.0,
      "startup": 1500.0
    },
    {
      "cost": [
        0.000213,
        4.4231,
        395.3749
      ],
      "index": 24,
      "model": 2,
      "ncost": 3,
      "shutdown": 0.0,
      "startup": 1500.0
    },
    {
      "cost": [
        0.0,
        0.001,
        0.001
      ],
      "index": 25,
      "model": 2,
      "ncost": 3,
      "shutdown": 0.0,
      "startup": 1500.0
    },
    {
      "cost": [
        0.0,
        0.001,
        0.001
      ],
      "index": 26,
      "model": 2,
      "ncost": 3,
      "shutdown": 0.0,
      "startup": 1500.0
    },
    {
      "cost": [
        0.0,
        0.001,
        0.001
      ],
      "index": 27,
      "model": 2,
      "ncost": 3,
      "shutdown": 0.0,
      "startup": 1500.0
    },
    {
      "cost": [
        0.0,
        0.001,
        0.001
      ],
      "index": 28,
      "model": 2,
      "ncost": 3,
      "shutdown": 0.0,
      "startup": 1500.0
    },
    {
      "cost": [
        0.0,
        0.001,
        0.001
      ],
      "index": 29,
      "model": 2,
      "ncost": 3,
      "shutdown": 0.0,
      "startup": 1500.0
    },
    {
      "cost": [
        0.0,
        0.001,
        0.001
      ],
      "index": 30,
      "model": 2,
      "ncost": 3,
      "shutdown": 0.0,
      "startup": 1500.0
    },
    {
      "cost": [
        0.008342,
        12.3883,
        382.2391
      ],
      "index": 31,
      "model": 2,
      "ncost": 3,
      "shutdown": 0.0,
      "startup": 1500.0
    },
    {
      "cost": [
        0.008342,
        12.3883,
        382.2391
      ],
      "index": 32,
      "model": 2,
      "ncost": 3,
      "shutdown": 0.0,
      "startup": 1500.0
    },
    {
      "cost": [
        0.004895,
        11.8495,
        665.1094
      ],
      "index": 33,
      "model": 2,
      "ncost": 3,
      "shutdown": 0.0,
      "startup": 1500.0
    }
  ],
  "name": "nesta_case24_ieee_rts__sad",
  "version": "'2'"
}